Flow Title=MonteCarlo
Program Version=6.31
Number of Profiles= 1 
Profile Names=13 avril 2011
River Rch & RM=River 1,Reach 1         ,8504    
     269.0
Boundary for River Rch & Prof#=River 1,Reach 1         , 1 
Up Type= 0 
Dn Type= 3 
Dn Slope=0.00045
DSS Import StartDate=
DSS Import StartTime=
DSS Import EndDate=
DSS Import EndTime=
DSS Import GetInterval= 0 
DSS Import Interval=
DSS Import GetPeak= 0 
DSS Import FillOption= 0 
