Geom Title=geometry_1D_20cm_glace
Program Version=6.41
Viewing Rectangle= 303265.443320072 , 305997.733395707 , 5106531.32601541 , 5103485.28908748 

River Reach=River 1         ,Reach 1         
Reach XY= 55 
305689.9271007985106392.86979141305680.2498809335106276.74315303
305622.186561745 5106186.4224343  305625.41230175106067.07005596
305525.4143630965105915.46027808305506.0599233675105831.59103925
 305495.858391735105651.74626277305394.9057308725105360.31688332
305282.5244668995105206.03074125 305063.476240515105148.88772567
304853.9518500515105124.12575225304745.3801204495105137.45912256
304642.5226924065105204.12597407304608.2368830585105314.60247085
304625.3797877325105436.50757076304718.7133798465105678.41300338
  304697.76094085105785.07996579304579.6653752685105842.22298137
304440.617370691  5105838.413447304322.5218051595105806.03240484
304278.7121598825105766.03229393304229.1882130465105619.36522061
304175.8547318385105522.22209413304071.0925366095105466.98384573
303836.8061727325105388.88839111303779.663157152 5105348.8882802
303732.0439775025105301.26910055303724.4249087585105249.84038653
303754.9011837345105025.07785858303724.4249087585104893.64892275
303638.7103853895104741.26754787303634.9008510175104661.26732606
303779.6631571525104404.12375595303914.9016273575104120.31344524
303979.6637116815104078.40856714304238.7120489765104042.21799061
304391.0934238555104055.55136091304520.6175925025104135.55158272
 304583.474909645104249.83761388304600.6178143145104371.74271379
304543.4747987345104463.17153871304467.2841112955104579.36233706
304429.1887675755104758.41045254304474.9031800395104986.98251486
304572.046306524  5105049.839832304701.5704751725105011.74448828
304855.8566172375104855.55357903304932.0473046765104689.83883385
 304939.666373425104480.31444339 304949.190209355104371.74271379
 305063.476240515104291.74249198305273.0006309695104206.02796861
305339.6674824785104002.21787971305433.0010745925103836.50313452
305482.5250214285103655.55025185
Rch Text X Y=305638.076581,5105708.5399065
Reverse River Text= 0 

Type RM Length L Ch R = 1 ,8504    ,163.9,134.1,112.7
XS GIS Cut Line=4
305873.5383922695106302.71035319305730.1393951345106336.85297156
305620.883016366 5106350.5100189 305394.17603042 5106350.5100189
Node Last Edited Time=Mar/20/2024 10:31:09
#Sta/Elev= 364 
       0 100.326    .499 100.377   1.588 100.454   2.555 100.469   4.611 100.741
   5.639 100.719    6.57 100.657     7.4 100.644   8.723 100.711   9.751   100.7
  10.721 100.715  11.806 100.785   14.89 100.656  15.918 100.512  16.946 100.461
  17.974 100.324  19.024 100.247   20.03 100.205  21.058 100.218  22.086  100.29
  23.175 100.321  24.142 100.283   25.17 100.189  26.198 100.221  27.226 100.401
  28.254 100.507  29.282 100.673   30.31 100.786  32.067 100.656  33.138 100.535
  34.421 100.513  35.449 100.422  36.477  100.25  37.505 100.038  38.533  99.871
  39.561  99.909  40.589  99.975  42.271 100.165  42.645 100.189  44.701  100.25
  45.592 100.115  47.253  99.953  48.813  99.818  49.841  99.787  50.574  99.808
  50.869  99.799  51.897  99.841  53.895  99.856   54.98  99.898  57.216  99.883
  58.046   99.86   60.12   99.93  61.148  99.904  63.204  99.911  64.232  99.878
  64.689  99.842   68.84  99.409    70.5  99.192  71.428  99.099  72.456  98.935
  73.484   98.83  75.482  98.768  76.568  98.659  77.973  98.616  78.623  98.617
  80.464  98.443  81.707  98.254  82.735  98.179  84.791  97.953  86.847  97.779
  87.875  97.786  88.903  97.768  90.959  97.819  92.088  97.766  93.015  97.643
  94.043  97.646  96.099  97.548  97.127  97.566  99.183  97.649  100.39  97.655
 101.145  97.635 103.294  97.492 104.542  97.458 106.202  97.459 107.406  97.409
 109.523  97.235  110.49  97.091 111.518  96.977 112.546  97.033 113.574  97.031
 114.602  96.992  115.63  97.043 117.686  96.974 119.486  96.941 119.742  96.948
 122.808  96.829 123.853  96.724 124.881  96.707 125.909  96.727 126.937  96.659
 128.619  96.298 130.021  96.054  130.28  95.961 131.049  95.595 132.077  94.977
 132.771  94.485   133.194.27026 133.105  94.267 134.133  93.727 135.161  93.383
 136.189   92.91 137.217  92.333 139.273  91.383 140.301  90.737 143.564  88.596
 144.412  88.063 145.225  87.499  145.44  87.343 146.468  86.516 147.408  85.711
 148.502  84.905  149.51  83.994 150.518  82.881 152.534  81.275 154.549   79.64
 155.557  78.877 157.594  77.276 158.697  76.483 162.611  73.731 163.619  72.903
 164.627  71.748  164.76  71.619  167.65  69.196 167.911  69.001 168.344  68.715
 168.658  68.471 169.666  67.829   169.9    67.8 170.674  67.706 171.681  67.756
 172.689  67.773 173.697   67.72 174.705   65.93 175.713  65.844  176.72  65.917
 177.728  65.945 178.736  66.031 179.744  66.078 180.751  66.103 181.759  66.179
 182.767  66.186 183.775  66.108 184.783  66.146  185.79   66.09 187.806   65.93
 189.821  65.868 190.829  65.867 191.837  65.998 192.845  65.867 193.853  65.695
  194.86  65.653 195.868  65.521 196.876  65.609 198.891  65.703 199.899   65.83
 200.907  66.025 201.915  65.957 202.923  65.984  203.93   65.96 204.938   65.97
 205.946   65.93   206.5  66.007 206.954  66.071 207.759  66.152 208.969  66.227
 209.977  67.791 210.985   68.37 211.993  69.248     213  70.068 214.008  70.438
 215.016  70.681 216.717  71.009 218.039  71.241 219.047  71.336 220.055  71.462
 221.063   71.63  222.07  71.709 224.086  71.608 225.094  71.482 226.102   71.55
 227.109  71.659 228.117  71.716 229.125  71.629 231.141  71.498 232.148  71.462
 233.156  71.493 234.164  71.597 235.172  71.622 236.179   71.54 237.321  71.485
 238.195  71.423 239.203  71.116 240.211  70.964 241.218  71.073 242.226  71.142
 243.234  71.061 244.242  70.893 244.487  70.866 247.265  70.779 248.273   70.81
 249.281  70.807 252.549  70.915 255.327  70.969 257.343  70.862 258.344  70.913
 260.344  70.912 261.344  70.946 262.344  70.949 263.344  71.012 264.344  70.977
   266.570.74415 267.344  70.653 270.717  70.767 271.344  70.811 272.344  70.972
 273.344  70.979 274.344   70.86 275.344  70.701 276.344  70.746 277.344  70.858
 278.344  70.938 279.344  70.869 281.344  70.671 281.717  70.709 281.972  70.711
 283.344  70.867 285.344  70.812 287.344  70.881 288.344  70.941 289.344  70.921
 291.717  70.687 292.344  70.611 292.717   70.63 292.972  70.664 294.344  70.743
 295.344  70.767 296.344  70.928 296.717   70.97 301.972  71.502 303.344  71.619
 304.344  71.725 306.344  71.538 308.344  71.646 309.344  71.573 310.344  71.468
 312.344  71.572 317.344  71.344 318.344  71.452 320.344  71.561 321.344  71.541
 322.344  71.488 323.344  71.619 324.344  71.633 325.344  71.559 326.344  71.432
 327.344  71.377 329.344  71.308 331.344  71.297 333.344  71.146 335.344  70.822
 336.344  70.938 336.972  70.983 339.972  71.135 341.344  71.238 343.344  71.566
 345.344      72 346.344  72.335 347.344  72.603 348.344  72.833 350.344  74.145
 352.344  75.615 353.344  76.103 355.717  77.817 357.344  79.036 358.344   79.74
 359.344  80.412 360.972  81.476 364.344  83.565 365.344  84.053 369.344  85.363
 370.344  85.803 371.344  86.133 372.344  86.151 373.344  86.111 374.344  86.115
 375.344  86.167 375.972  86.231 376.344  86.278 377.344  86.445 378.344    86.4
 380.344  86.406 380.972  86.422 382.344  86.477 385.344  86.543 386.972  86.605
 387.344  86.623 388.344  86.737 390.344  87.382 391.344  87.608 392.344  87.808
 393.344  88.064 394.344  88.409 397.344  89.291 398.344  89.544 399.344  89.618
 401.344  89.702 403.344  89.654 406.344  89.163 407.344  88.908 408.344  88.899
 409.344  88.832 410.344  88.865 411.344  88.963 412.344  88.961 413.344  88.886
 414.344   88.79 415.344  88.754 416.344  88.918 417.344  88.993 418.972  89.255
 420.344  89.435 421.344  89.496 422.344  89.529 423.344  89.379 425.344  88.939
 426.344  88.916 428.344  88.993 429.344  89.005 431.344  88.991 433.344  88.918
 435.344  88.944 438.344  88.919 439.344  88.971 441.344  89.206 444.344  89.361
 445.344  89.282 447.344  89.028 448.344  88.944 451.344  89.232 453.344  89.131
 455.344  89.176 457.344  89.253 459.344  89.377 460.344   89.41 465.344  89.178
 467.344  89.112 468.344  89.124 470.344  89.199 471.344  89.199 476.344  89.082
 478.344  89.136 479.344  89.051 480.344  88.994 484.221  89.004
#Mann= 3 ,0,0
       0      .1       0   133.1     .03       0   266.5      .1       0
Ice Thickness=0,0.2,0
Ice Mann=0.04,0.04,0.04
Ice Specific Gravity=0.916
Ice Is Channel= 0 
Ice Is OB= 0 
Ice Friction Angle=47
Ice Porosity=0.4
Ice K1=0.33
Ice Max Mean Vel=5
Ice Cohesion=0
Ice Fixed Mann=-1 
Bank Sta=133.1,266.5
XS Rating Curve= 0 ,0
XS HTab Starting El and Incr=65.67,0.3, 100 
XS HTab Horizontal Distribution= 5 , 5 , 5 
Exp/Cntr(USF)=0,0
Exp/Cntr=0.3,0.1

Type RM Length L Ch R = 1 ,8370    ,188.5,208.1,159.1
XS GIS Cut Line=4
305847.590002311 5106137.4600803305704.1910051775106185.25974602
305592.2032169395106248.08216381305406.4673730325106234.42511646
Node Last Edited Time=Mar/20/2024 10:31:09
#Sta/Elev= 395 
       0   97.39   2.674  97.441   4.913  97.562   5.836  97.572   6.891  97.559
   7.945  97.639  11.107  97.688  12.161  97.755  13.609   97.75  15.323  97.789
  16.377  97.863  17.431   97.88  18.353  97.927   19.54  97.949  21.515  98.077
  23.096  98.116  24.677  98.221  27.972  98.326   28.63  98.294  29.027  98.301
  29.421  98.343  31.135  98.448  32.189    98.5  33.243  98.518  34.164  98.563
  35.351  98.629  37.459  98.786   40.09  98.887  43.784  99.104  45.892  99.206
  47.604  99.339  49.054  99.422  50.108  99.543  51.162  99.609  54.325  99.715
  55.901  99.832  58.672  99.954  60.649  99.984  61.703 100.096  62.757 100.177
  63.812 100.191  65.388 100.238  66.974 100.336  69.082 100.389   71.19 100.516
  72.244 100.499  73.298 100.523  74.352 100.609  74.875 100.625  76.461 100.633
  77.515 100.655  78.569 100.706  80.017 100.732  81.731 100.746  82.389 100.732
  83.839 100.742  84.893 100.716  85.948  100.73  87.002 100.724  88.056 100.786
  91.218 100.738  92.666  100.78  93.457 100.822  96.488 100.819  97.543 100.776
  98.597  100.77  99.781 100.811 101.759  100.82 103.867  100.87 104.525 100.851
 105.315 100.856 105.975 100.841 107.029 100.745 108.083 100.742 109.138 100.781
 110.059 100.749   112.3  100.77 113.354 100.712 114.408 100.688 116.516 100.707
 118.624 100.841 119.678 100.844 120.733 100.824 121.787 100.734 122.841 100.499
 123.895  99.937 126.003   98.57 127.057  98.027 127.451   97.77 128.111  97.287
 128.634  96.874 130.614  95.218 131.273  94.713 132.195  94.097 133.776  93.101
 134.174  92.883 134.958  92.421     13592.39202  135.49  92.054 136.544  91.418
 137.729  90.669 138.519  90.221  139.31  89.872 139.706  89.679   140.1  89.439
 141.814  88.368 143.923  86.829 144.445  86.646 144.844  86.547 144.977  86.529
 145.634  86.657 146.031  86.707 146.425  86.715 147.085  86.691 148.006  86.493
 149.193  86.145 149.587  85.981 149.986  85.787 151.156  85.264 153.607  84.256
 154.106  84.016 154.754   83.73   155.9  83.042 156.309  82.829 157.047   82.39
 158.194  82.001 159.082  81.887 159.982  81.848 161.126  81.721  162.92  81.619
 163.927  81.464 165.124  81.355  166.22  81.316 167.366  81.223 168.796  81.178
 169.302  81.108 170.266  80.908     171  80.775 171.953  80.663 173.099  80.625
 173.938  80.468 174.246  80.392 175.393   80.19 176.142  80.134 176.876  80.034
 177.686  79.993 178.346  79.886 178.832  79.839 179.521  79.701 179.815  79.669
 179.979  79.687 180.549  79.871 181.126  80.093 181.284  80.175 181.565  80.283
 182.272  80.486 184.222  80.712 184.565  80.692 184.956  80.641 186.425  80.378
  187.16  80.208 188.005  79.988 188.629  79.775 189.152  79.571 190.098  78.831
 190.833  78.205 191.567  77.517 191.785  77.285 192.592  76.313 194.885    73.9
  195.24   73.46 196.031   72.56 198.325  69.655 198.913  69.007 199.471  68.428
 199.647  68.302 199.961   68.15 200.382  67.991   200.5  67.957 200.618  67.923
 201.116  67.847 201.764  67.782 202.911  67.747  203.32  67.398 204.058  65.797
 206.351  66.084 207.727  66.181 209.196  66.318 210.181  66.391 210.937  66.429
  213.23  66.364 214.338  66.206 215.524  66.127  216.67  66.142 217.276  66.166
 218.011  66.259 218.745   66.24 218.963  66.223  220.11  65.991 221.257  65.986
 221.683  65.922 222.403  65.866 223.153  65.954  223.55  65.971 223.887  65.949
 224.488   65.87 224.696  65.866 226.091  66.185 226.532  66.308 226.825  66.354
  226.99  66.356  227.56  66.287 228.294  66.276 229.283  66.229 229.763  66.224
 230.429  66.247 231.576  66.036 231.967  66.028 232.702  66.071 233.436  66.212
 235.016  66.206 235.409  66.367  235.64  66.437 236.162  66.791 236.752  67.619
   237.3   68.43 237.309  68.443 237.843  69.055 238.456  69.834 238.578  69.947
 238.796      70 239.602      70 240.047  70.132 240.749  70.415 241.516  70.511
 241.895  70.543 243.042  70.594 244.189  70.478 245.335  70.313 247.628  70.161
 248.861  70.153 249.922  70.117 251.065  70.141   251.8  70.182 253.361  70.208
 255.472  70.186 256.941  70.259 259.145  70.328 260.614  70.302 261.279  70.317
 262.083  70.424 263.681  70.558 265.021  70.742 265.974  70.829 267.121  70.893
 268.694  70.919 270.561   70.88 272.854  70.922 273.836  70.837  274.57  70.795
 275.147  70.767 276.294  70.748 276.774  70.777 277.509  70.861 278.243  70.833
   278.470.83586 279.561  70.857 279.784  70.853 281.717  70.653  282.72  70.635
 285.728  70.707 287.733  70.956 288.056  70.966 288.736  70.962 289.739  70.875
 289.924  70.878 292.747  71.007 296.018  71.076 296.462  71.105   297.1  71.105
 297.396  71.131  297.76  71.127 298.763  71.171 299.766  71.145 300.768  71.091
 301.771  71.075 302.774   71.12 303.594  71.258 303.934  71.298 305.782  71.371
 306.785  71.568  307.67  71.695 307.923  71.717  308.79  71.727 311.798  71.615
 312.801  71.594 314.806  71.411 315.809  71.435 316.812  71.507 318.878  71.374
  319.82  71.406 321.825  71.573 323.549  71.607 324.157   71.64 325.836  71.779
 326.839  71.964 328.844  72.623 329.569  72.965 331.852  74.128 333.898  75.145
 334.757  75.598 335.863  76.154 336.866   76.71 338.871  78.049 339.874  78.693
 340.876  79.417 341.879  80.102  345.89  82.753 346.899  83.356 348.898  84.493
 350.903  85.913 351.906  86.453 352.909  86.525 353.911   86.54 354.914  86.473
 355.305  86.462 357.173  86.421 358.925  86.412 360.909  86.508 362.936  86.582
 363.938  86.654 365.944  86.567 367.949  86.718 368.952  86.733 371.777  86.662
 373.986   86.65 376.974  86.745 377.976  86.617 378.979  86.531 379.982  86.546
 380.984  86.536 381.987  86.588  382.99  86.544 383.326   86.51 383.682  86.451
  384.26  86.402 385.194  86.382 385.847  86.435 387.001   86.42 389.006  86.273
 391.258  86.168 391.732  86.126 393.017  86.119 395.022  86.031 396.025   86.07
  398.03   86.18 399.033  86.206 401.038  86.138 402.041  86.243 404.046  86.328
 405.049  86.429 406.052  86.635 407.055  86.791 408.057  87.043 412.068  88.207
 417.082  89.736 418.084  89.922 419.087  89.885  420.09  89.939 421.092   89.94
 423.098  89.837 425.103  89.663 426.106   89.65 428.056  89.332 429.093   89.19
 431.119  89.059 433.125  89.164 439.141  89.582 440.144   89.57 441.146  89.509
 443.152  89.421  444.29  89.311  446.16  89.077 448.165  88.878 449.168  88.746
 450.171  88.797 452.444  88.995 454.181  89.116 455.246  89.023 457.277  88.793
 458.048  88.773 459.195  88.705 464.208  88.528 465.211  88.547 465.798   88.58
#Mann= 3 ,0,0
       0      .1       0     135     .03       0   278.4      .1       0
Ice Thickness=0,0.2,0
Ice Mann=0.04,0.04,0.04
Ice Specific Gravity=0.916
Ice Is Channel= 0 
Ice Is OB= 0 
Ice Friction Angle=47
Ice Porosity=0.4
Ice K1=0.33
Ice Max Mean Vel=5
Ice Cohesion=0
Ice Fixed Mann=-1 
Bank Sta=135,278.4
XS Rating Curve= 0 ,0
XS HTab Starting El and Incr=65.97,0.3, 100 
XS HTab Horizontal Distribution= 5 , 5 , 5 
Exp/Cntr(USF)=0,0
Exp/Cntr=0.3,0.1

Type RM Length L Ch R = 1 ,8162    ,127.5,107.9,91.1
XS GIS Cut Line=4
305820.2759076195105953.08994113305642.734292119 5105995.4267879
305532.1122086165106070.54054831305380.5189830745106088.29470986
Node Last Edited Time=Mar/20/2024 10:31:09
#Sta/Elev= 399 
       0  93.836    .229  93.844   1.257  93.801   2.285  93.835   3.313  93.839
   6.397  93.939   7.425  93.938   10.51  94.032  12.566  94.062  13.506  94.107
  14.622  94.113  15.996    94.2  17.657  94.229  18.734  94.276  19.762  94.273
   20.79  94.295  22.846  94.383  23.874  94.414  24.902  94.406   25.93  94.459
  26.788  94.421  27.986  94.479   31.07  94.468  32.098  94.478  33.126  94.456
  34.258  94.467  35.335  94.527  38.267  94.538  39.295  94.525  40.323  94.541
  41.351  94.517  42.559  94.531  45.463  94.586  48.547  94.685  49.575  94.698
  51.631   94.67  53.687  94.719  54.715   94.77  55.743  94.774  56.771  94.813
  57.799  94.823  58.827  94.865  60.821  94.863  61.652  94.888  63.968  94.917
  64.996  94.977  65.802  94.971  67.052   95.02  68.292  95.037  70.136  95.035
  71.164  95.074  72.192  95.069  74.103  95.141   78.36  95.247  79.388  95.298
  81.444  95.323  84.528  95.427  85.556  95.425  86.554  95.476   88.64  95.543
  89.669  95.531  90.705  95.578  92.365  95.613  94.809  95.701  98.176   95.75
  99.949   95.75 100.977  95.779 102.005  95.774 103.033  95.826 104.816  95.881
 107.145  95.916 108.173  95.907 109.797  95.942 115.369  96.171 117.426  96.159
 118.454  96.196 119.482  96.214 121.538  96.317 124.622  96.355 125.782  96.336
 126.678  96.359 127.706   96.43 128.889  96.428 129.762  96.474 133.874  96.259
  135.53  96.104  138.02  95.762 143.127   94.93 144.155  94.466 145.183  93.794
 146.211  93.267 151.095  90.646 152.379  89.976 153.407  89.471 156.282  88.166
   156.887.94444 157.112  87.811 157.519  87.658 159.718  86.983 160.603  86.672
 161.631  86.503 162.093  86.412 162.659  86.339 166.771  85.334 167.799  85.134
  168.34   85.12 168.827  85.084 169.856  85.061 170.884  85.066 171.912  85.024
 172.054  84.997  172.94  84.986 173.714  84.742 173.968  84.705  178.08  83.523
 179.108  83.289 181.164  82.925 182.192  82.809  182.52  82.737 183.343  82.631
 184.552   82.11 186.969  80.868 190.596  79.077 191.804  78.688 192.161  78.615
 193.013  78.389 193.601  78.276 194.222   78.18 194.466  78.112  195.04  77.806
 195.431  77.571 196.639   76.68  197.92   75.69  198.64  75.161  199.36  74.648
 200.266   74.06  202.24  73.019 203.367  72.482 205.101  71.694 205.839  71.092
 206.309  70.741 207.999  69.699 209.935  68.417 210.159  68.332 210.879  67.992
 211.598  67.627 212.353  67.424 213.038  67.425 213.562  67.467 214.478  67.456
   215.6  67.493 215.828    67.5 215.918  67.459 216.299  66.816 216.638  66.166
 217.188  65.739 218.078  65.753 218.397  65.774 218.798  65.806 220.237   65.97
 220.814  66.017 222.948  66.146 223.232  66.175 223.837  66.193 224.557  66.164
 225.649  66.199 226.717   66.16 227.437  66.081 228.156  66.038 228.876  66.032
 229.596  66.069 230.484  66.005 231.036  66.066 231.693  66.117 232.902  65.997
 234.636  65.952 236.076  65.965 237.515  66.023 238.235  66.149 238.955  66.319
 239.675   66.24 240.395  66.227 241.835  66.168 242.572  66.061 243.275  66.056
 243.995  66.145 244.714   66.15 244.989  66.135 245.434  66.191  246.09   66.31
 246.198  66.355 246.874  67.134 247.406  67.641   248.2  67.807 248.615  67.894
 249.034  68.119 249.824  68.598 251.033  69.501 251.431  69.758 252.241   70.22
  253.45  70.814 254.659  71.295 254.991  71.463 255.513  71.766 255.868  72.009
 257.076  72.929 258.285  73.517 259.113  74.004 259.494  74.203 259.833  74.321
 260.331  74.466 260.553  74.506 261.272  74.575 262.712  74.775 263.432  74.947
 263.892  75.149 264.329  75.272 265.538  75.115 266.746  75.151 267.752  75.331
 268.472  75.436 269.164  75.502 270.373  75.541 270.631  75.534 271.581  75.628
  272.79   75.61 273.999  75.522 275.208  75.414 276.353  75.432 277.111  75.365
 277.625  75.345  279.27  75.191 280.043  75.149  280.71  75.186     28175.21494
 281.251   75.24  282.15   75.19  282.46    75.2 283.473  75.166  284.31  75.234
 284.878  75.313 286.086  75.519 287.295  75.646 287.909  75.738 289.349  75.898
 289.712  75.954 294.547   77.21 295.828  77.604 296.548  77.854 296.965  78.024
 298.174  78.355 299.428  78.628 300.868  78.912 301.275  79.008 303.009  79.514
 304.217  79.846 304.835  79.973 305.187  79.979 305.907  79.925 306.615   79.93
 307.844  79.969 308.395   80.08 308.787  80.114 309.052  80.102 309.507  80.143
 310.227  80.264 310.946    80.3  311.47  80.344 311.956  80.311 312.386  80.221
 315.096  79.898 315.516    79.8 316.233  79.598 316.825  79.499 318.627  79.154
  320.43  78.767 321.327  78.441 322.334  77.653 326.361  76.092 326.739  75.924
 327.024  75.826 327.368  75.681  327.64  75.645 328.164  75.657 328.375  75.636
 328.541  75.653 329.443  75.834 331.395  76.423 332.726  76.858 333.048  76.935
 333.949  77.249 334.416  77.429 335.423  77.895 335.752  78.024 336.147  78.232
 337.436  78.805 338.443  79.342  339.45  79.792 341.464  80.407 342.471  80.764
 343.477  81.143 344.484  81.545 344.764  81.689  345.27  81.901 345.491   82.01
 347.468  82.262 349.271  82.551 350.525   82.72 352.539  83.042 353.777  83.169
 354.553  83.299 355.559  83.554 356.481  83.878 357.573  84.204 358.284  84.372
 359.587  84.596 360.594  84.819   361.6   85.17 362.607  85.491 363.691  85.712
 364.593  85.847 365.797  85.963 367.641  86.009 368.648  86.051 370.662  86.314
 371.669  86.223 372.704  86.213 374.689  86.333 376.703  86.557  377.71  86.395
 378.717   86.32 379.723  86.394  380.73  86.399 381.737  86.428 382.744  86.351
 383.751  86.343 385.764  86.367 386.771  86.343 387.778  86.284 388.785  86.319
 389.828  86.241 390.799  86.136 391.805  86.113 392.532   86.11 393.434  86.132
 394.826  86.211  397.94  86.117  399.86  86.081 400.644  86.032 401.874  85.908
 402.881  85.935 403.887  85.917 404.894  85.964 405.901  85.927 407.854  85.458
 408.922  85.237 409.928  84.998 410.935   84.88 411.942  85.042 412.949  85.266
 413.956  85.578 414.963  85.799 415.969  85.906 416.976  86.091  418.99  86.427
  422.01  86.433 422.817   86.47 427.045  86.811 428.052  86.961 430.065  87.396
  431.94  87.585 433.086  87.679 434.093  87.646 435.099  87.453 436.106   87.33
 437.113  87.384  438.12  87.542 440.134  87.722 445.168  87.711 447.181  87.546
 448.188  87.787 449.195  87.785 450.202  87.713 452.216  87.611 453.222  87.502
 454.229  87.294 455.236  87.197 457.029   87.19 458.326  87.146 458.916  87.141
  460.27  87.152 461.277  87.217 461.931  87.184 463.291  87.169 464.298  87.194
 466.311  87.049 467.338  87.073  468.24  87.133 468.863  87.193
#Mann= 3 ,0,0
       0      .1       0   156.8     .03       0     281      .1       0
Ice Thickness=0,0.2,0
Ice Mann=0.04,0.04,0.04
Ice Specific Gravity=0.916
Ice Is Channel= 0 
Ice Is OB= 0 
Ice Friction Angle=47
Ice Porosity=0.4
Ice K1=0.33
Ice Max Mean Vel=5
Ice Cohesion=0
Ice Fixed Mann=-1 
Bank Sta=156.8,281
XS Rating Curve= 0 ,0
XS HTab Starting El and Incr=65.88,0.3, 100 
XS HTab Horizontal Distribution= 5 , 5 , 5 
Exp/Cntr(USF)=0,0
Exp/Cntr=0.3,0.1

Type RM Length L Ch R = 1 ,8054    ,111.5,139.2,154.2
XS GIS Cut Line=4
 305797.058927135105823.34799134305648.1971110585105871.14765705
305455.6327434785105984.50115003305351.8391836475106009.08383525
Node Last Edited Time=Mar/20/2024 10:31:09
#Sta/Elev= 380 
       0  92.184   1.056  92.176   2.107   92.21   3.157  92.188   5.403  92.248
   9.459  92.273   12.61  92.384  15.761  92.399  16.811  92.391  17.861  92.359
  21.012  92.383  22.098    92.4  24.163  92.486  25.213  92.476  26.263  92.494
  27.663  92.495  29.414  92.464  33.615  92.574  34.666  92.578  36.408  92.557
  38.867  92.501  42.018  92.507  43.068  92.523  44.358  92.504  46.219  92.505
   50.42  92.402  52.521  92.423  55.671  92.397  58.822  92.345  61.973  92.366
  65.124  92.351  66.174  92.365  67.225  92.352  68.275  92.369  69.325  92.337
  70.376  92.398  71.426  92.407  72.476  92.453  76.677  92.518  77.728  92.492
  78.778  92.539  82.979  92.635   87.18  92.668   88.23  92.646  89.281   92.75
  90.331  92.776  92.059  92.845  93.482  92.859  96.633   92.84 100.009  92.901
 100.834  92.931 103.985  92.961 105.035  92.911 106.085  92.977 107.136  93.155
 109.236  93.816 110.286  94.104 110.523  94.099 111.337  94.035 115.538  93.436
 116.588  93.319 117.638  93.295 118.294  93.302 120.789  93.411  121.84  93.398
 123.606  93.482 124.991  93.527 126.041  93.541 126.877  93.587 129.192  93.661
 130.242   93.65 131.292  93.678 134.194  93.806 134.989  93.802 136.544  93.842
 137.594  93.929 138.644  94.159 139.759   94.21 139.961  94.189 140.745  94.019
 142.845  93.447 152.298  90.938 155.449  90.077 156.348  89.543 158.637  88.127
 159.367  87.781 159.996  87.521 161.157  87.098 165.941  85.529 168.133  84.705
 170.127  84.108   171.583.67012 173.921  82.898 176.167  82.738 178.562  82.062
 179.089  81.985 179.819  81.984 185.525  80.354 185.663  80.353 186.393  80.237
 186.685   80.15 187.124  80.094 187.846  80.063 192.487  78.896 192.967  78.862
 193.648  78.847 194.428  78.936 195.889  79.171 197.129  79.009  201.77  77.952
 202.931  77.676 203.923  77.397 204.654  77.224  205.61  77.048 207.572  76.773
 209.036  76.624 209.893  76.438 210.497  76.387 211.053  76.307 214.149  75.975
 215.695  75.882 216.855  75.621 218.016   75.34 219.409  74.955 220.723  74.565
 221.454  74.436 222.915  74.299 223.645  74.185 223.818  74.147 224.375  73.976
 226.139  73.405 226.567  73.318 227.299  73.203 228.459  73.089 229.265  73.075
 229.488  73.084 230.219  73.161 230.949  73.206 231.941  73.307 233.101  73.212
 234.261  73.305 234.601  73.371 235.332  73.473  237.15  73.542 240.063  73.728
 241.224  73.675 243.366  73.273 244.827  72.807 245.865  72.431 247.007  72.051
 248.186  71.621 248.978  71.284 249.346  71.101  249.94  70.738 250.507  70.365
 252.862  68.999 254.892  68.236 255.148  68.127 255.516  67.812 255.784   67.61
 256.309  67.004 256.514  66.792 256.863  66.586 257.469  66.347 257.975  66.217
  258.63   66.09   258.7  66.079 259.436  65.969  259.79  65.957 261.627  65.975
 262.111  65.951 263.088   65.81 264.549  65.674  266.01  65.659 267.471  65.728
 269.073  65.853 269.662  65.883 271.853  65.938 272.633  65.916 273.314  65.942
 274.044  66.005 274.604   66.01 276.236  65.983 277.196  65.922 278.427  65.981
 279.888  65.948 281.837  65.867 282.489  65.859  283.54  65.877  284.27  65.863
 285.001  65.895 286.479  65.874 287.192  65.889 287.922  65.946 288.653  65.965
  289.96  65.917 290.844  65.846 291.121  65.838 291.575  65.852 292.305  65.844
 293.441  65.879 294.602  65.826 295.227  65.837 295.957  65.875 296.923  65.893
  298.26   65.86 299.243  65.859 299.609  65.886  300.34  65.909 302.202  66.081
 302.725  66.101 303.992  66.095 305.045  66.112 306.206  66.071 307.366  66.095
 308.527  66.001 309.687  65.955 310.087  65.983 310.847   66.09 311.296  66.119
 312.058  66.078 313.168  66.101   313.5  66.153 314.328  66.283 314.948   66.57
 315.489  66.884 316.001  67.262 316.409  67.469 316.649  67.435 317.139   67.16
 317.577  67.092  317.81  67.032 317.972  67.062   318.6  67.218  318.97  67.329
 319.331  67.531  320.13  68.104  321.34   69.22 322.451  70.499 322.983  71.081
 323.886  72.121 324.444  72.603 324.772  72.831 325.174  72.923 325.857  73.255
 327.093  74.024 327.829  74.287 328.096  74.353 328.826  74.575 329.414  74.805
 329.557  74.886   329.8  75.073 330.574  75.585 331.018   75.76 331.734  76.108
 332.895  76.925 333.742  77.604 335.216  78.725 335.714   78.92 336.131  79.116
 336.861   79.63 337.685  80.244 338.697  80.689 339.783  81.316 341.018  82.115
   341.982.71561 341.974  82.766 343.338  83.636 343.435  83.668 344.165  83.765
  345.57  84.018 346.357  84.125 347.087  84.256 347.541  84.294  347.98  84.295
   352.2  84.239 356.103    84.3 357.263  84.271 358.043  84.128 358.423  84.115
 358.774  84.079 359.369  83.945 361.905  83.241 363.065  82.957 364.225  82.631
 365.386  82.449 370.027  81.504 371.191  81.438 372.348  81.516 373.168   81.55
 374.843  81.711 375.574  81.722 375.829  81.744  376.99  81.721  378.15   81.87
 381.422  82.547 382.449  82.816 384.505  83.461 388.615  84.592 389.948  85.038
 391.698  85.501 392.726  85.657 393.754  85.713  400.75  86.026 401.975  86.028
 403.242  85.947 405.058  85.906 407.113  85.963 409.169  85.822 410.196  85.853
  410.72  85.834 412.252  85.757 413.279  85.675 414.044  85.696 414.307   85.72
 415.706  85.919 416.362  85.974 417.426  86.116 418.418  86.141 420.473   86.32
 422.528  86.405 423.556  86.474 424.583  86.493 425.676  86.437 426.639   86.32
 427.338  86.437 427.666  86.468 428.694   86.43  429.83  86.336 430.661  86.301
 432.323  86.392 433.832  86.501 435.647  86.495 436.915  86.408 437.943  86.382
 439.998  86.498 440.632  86.379 441.026  86.281 441.463  86.226 442.054  86.182
 443.306  86.224 444.109  86.218 445.137  86.128 446.448  85.984 447.192  85.945
 447.645  86.013 449.247  86.318 450.275  86.562  452.33  87.224 453.358  87.375
 454.386  87.387 455.413   86.97 456.441  86.975 457.249   87.07 458.496   87.27
 458.911  87.311 461.579  87.444 463.635  87.473 464.662  87.536  465.69   87.69
 466.718  87.758 468.051  87.722 473.036  87.763 474.698    87.8 475.967  87.856
  476.36   87.85 476.677  87.879 476.994  87.887 477.191  87.877 478.022  87.742
 478.852  87.815 479.683  87.789 481.105  87.661 481.345  87.621 482.063  87.547
  483.16  87.332 483.838  87.268 484.188  87.215 485.216  87.199 486.463  87.137
#Mann= 3 ,0,0
       0      .1       0   171.5     .03       0   341.9      .1       0
Ice Thickness=0,0.2,0
Ice Mann=0.04,0.04,0.04