Geom Title=Chateauguay_JD_no_levees
Program Version=6.41
Viewing Rectangle= 281584.207000357 , 286631.79986492 , 5029385.83521194 , 5019229.30677712 

Junct Name=Junction 1      
Junct Desc=, 0 , 0 , 0 ,0
Junct X Y & Text X Y=285065.875,5026672,285065.875,5026672
Up River,Reach=River 1         ,Chateauguay_up
Dn River,Reach=River 2         ,ds_left
Dn River,Reach=River 3         ,ds_right
Junc L&A=120,0
Junc L&A=135.3,0

River Reach=River 1         ,Chateauguay_up  
Reach XY= 96 
281916.6696760415019831.11767434281992.2203148495019889.61695369
282158.6678159735019932.11418802282342.8224980685019960.44567757
282537.6014887455019995.86003952282608.4302126285020045.44014623
282718.2147346465020123.35174251282813.833511888  5020187.097594
 282944.866651075020233.13626452283153.8113865245020282.71637124
283249.430163766 5020307.5064246283334.424632425 5020307.5064246
283394.6290477255020357.08653132283426.501973472 5020427.9152552
283461.9163354145020527.07546864283529.2036231025020640.40142685
283592.949474597 5020732.4787679283674.4025070625020813.93180036
283780.6455928865020856.42903469283872.7229339335020884.76052424
283986.0488921455020916.63344999284074.5847969995020934.34063096
284127.7063399115020987.46217387284156.0378294645021058.29089776
284209.1593723765021164.53398358284233.9494257345021242.44557985
284294.1538410355021345.14722948284340.1925115585021437.22457053
284364.9825649175021522.21903919284382.6897458885021603.67207165
284407.4797992475021688.66654031284449.9770335765021763.03670039
284513.7228850715021848.03116905284595.1759175365021933.02563771
284673.0875138075021986.14718062284715.5847481365022053.43446831
284750.9991100785022131.34606458284768.7062910485022202.17478846
284775.7891634375022304.87643809284846.6178873195022379.24659817
284931.6123559785022464.24106683285023.6896970265022517.36260974
285090.9769847145022574.02558884285090.9769847145022644.85431273
285098.0598571035022740.47308997285137.0156552385022875.04766534
285197.2200705385023006.08080453285285.7559753915023094.61670938
285370.7504440515023158.36256087285438.0377317395023232.73272095
285508.8664556225023314.18575342285569.0708709225023420.42883924
285629.2752862225023508.96474409285685.9382653285023562.08628701
285756.7669892115023593.95921275285827.5957130945023593.95921275
285891.3415645885023576.25203178285958.6288522775023576.25203178
285994.043214218 5023625.8321385286043.6233209365023707.28517096
  286064.87193815023788.73820343286116.9310501555023929.68736396
286120.118342729 5023999.8078006286069.1216615345024053.99177437
285995.8139323155024085.86470012285868.3222293265024101.80116299
285785.4526223845024108.17574814285686.6465525675024133.67408874
285648.3990416715024187.85806251285642.0244565215024242.04203628
 285661.148211975024321.72435065285683.4592599935024401.40666501
285677.0846748435024490.65085711285638.8371639475024570.33317147
285578.2786050275024599.01880465285508.1581683835024608.58068237
285396.6029282685024611.76797495285304.1714436015024643.64090069
285198.9907886365024681.88841159285135.2449371415024736.07238536
285055.562622773 5024818.9419923285007.7532341525024917.74806212
284985.4421861295025010.17954679 284972.69301583 5025108.9856166
284940.8200900835025274.72483049284883.4488237385025571.14303994
 284924.883627215025698.63474292284988.6294787045025762.38059442
285061.9372079235025842.06290879285112.933889118 5025940.8689786
285163.9305703145026087.48443704285167.1178628885026202.22696973
 285147.994107445026352.02972074285125.6830594175026431.71203511
285096.9974262445026524.14351978285064.7110508145026669.63893406
Rch Text X Y=282703.6800197,5021540.7479893
Reverse River Text= 0 

Type RM Length L Ch R = 1 ,10046   ,177.8,177.8,177.8
XS GIS Cut Line=3
281813.6430396555019939.75164504281983.2738884235019786.75059889
282057.4432465325019690.96716052
Node Last Edited Time=Sep/05/2024 12:44:39
#Sta/Elev= 272 
       0   36.97      .8   36.95     2.2   36.97     3.6   36.97       5   36.86
     6.4   36.82     7.8    36.7     9.3   36.81    10.7   36.87    11.4   36.88
    13.8   36.84    15.3   36.76      16   36.75    16.4   36.78    17.3   36.91
    18.3   36.92    18.7   36.91    19.8   36.79    20.6   36.65    21.3   36.59
    22.8    36.5      24   36.41    25.8   36.25      27    36.1    28.1   36.02
    29.4   35.96    30.2   35.88    30.8   35.84    31.2   35.75    32.1   35.65
    34.1   35.38    36.2   35.13    36.9   34.98    37.5    34.9    38.3   34.74
    40.2   34.45    40.4   34.42    41.6   34.38    41.9   34.35    42.2   34.34
    42.9   34.24    43.3   34.16    43.7   34.13      44    34.1    44.2   34.06
    44.7   33.96    45.6   33.78    46.9   33.57    48.2   33.43    48.9    33.3
    49.6   33.13    50.3    32.9      51   32.72    51.1   32.66    51.8   32.32
    52.3   32.18    53.2   31.81    53.7   31.74    53.9   31.68    54.1    31.6
    54.6   31.39      55   31.29    55.6   31.11    56.4   30.85    56.7   30.71
    57.1   30.55    57.7   30.23    58.1   30.08    58.8   29.88    59.1   29.83
    59.6   29.79    60.4   29.57      61   29.52    61.8    29.3    62.4   29.39
    63.1   29.38    63.8   29.44    64.4   29.47    65.2   29.63    65.9   29.81
    66.6   30.14    67.1   30.39      68   30.75    68.5   30.96    69.8   31.29
    70.9   31.46    71.2   31.48    71.631.49231    72.5   31.52    73.7   31.53
      75    31.5    76.5   31.56      78   31.56    80.6    31.5    81.5   31.39
    82.5   31.31    83.3   31.17      84   30.97    84.3   30.81    84.6   30.61
      86   29.64    87.3   28.81    87.9   28.52    88.5   28.25    89.3   27.91
    90.7   27.42    91.4   27.07    92.9   26.44    95.4   25.35    97.4   24.61
    99.5   24.18   100.6   23.98   101.9   23.79   103.5   23.69   104.9   23.58
   107.9   23.36   109.4   23.28   111.6   23.18   129.1    23.1   135.8   23.03
   142.2   23.04   146.7   23.11   147.9   23.16   152.3    23.5   154.4   23.61
     156   23.66   157.3   23.72   160.1   23.89   165.1   24.36   167.9   24.67
   168.6   24.77     170   25.02   172.1   25.45   176.4   26.46   177.6   26.72
   178.5    26.9   180.3   27.19   184.3    27.7   185.6    27.9     187   28.25
   187.7   28.47   188.5   28.74   189.1   29.03   191.5   30.26     193   31.01
   193.4   31.18   193.7   31.31   194.1   31.39   194.5   31.44   195.5   31.51
   196.4   31.53   196.9   31.57   199.1   31.61   199.7   31.59   200.5   31.55
   201.2   31.53   202.6   31.61   203.131.65286   203.3   31.67   204.9   31.86
   205.8   31.89   206.8   31.88   207.5    31.9   208.2   31.95     209   32.04
   209.4   32.07   209.9   32.04   210.4   31.97   211.1    31.9   211.8   31.87
   212.6    31.8   213.9   31.72   215.4   31.73   217.4   31.83   218.9   31.92
   219.6   31.97   219.9   32.01   220.7   32.06   221.7   32.03     222      32
   222.4   31.93   223.8   31.85     226    31.8   227.4   31.85   228.4   31.81
     230    31.7   230.4   31.68   232.5   31.68   233.1    31.7   233.8   31.76
   234.5   31.79   237.3   31.86   237.6   31.85   238.9   31.75   239.5   31.71
   240.2   31.68   240.9   31.67   241.9   31.69     243   31.69   244.5   31.73
   245.9   31.71   246.5   31.71   247.3   31.84   247.7   31.87   248.4   31.85
   249.4   31.75   250.2    31.7   251.6   31.72   253.3   31.68   254.1   31.68
   256.6   31.81     258   31.82   259.1    31.7   260.4    31.6   261.5   31.54
   264.2   31.47   265.4   31.49   266.4   31.48     268   31.39   270.8    31.4
   271.8   31.44   272.3   31.43     273   31.37   274.4   31.31   275.6   31.31
   278.1   31.35   279.4   31.28   281.5    31.3   282.7   31.37   284.3   31.44
     286    31.4   287.2   31.49   289.2   31.61   290.1   31.59   292.5   31.58
   293.6    31.6   294.5   31.59   295.8   31.63   297.1   31.58   297.9   31.57
   300.1   31.57   302.1   31.61   303.6   31.67   305.9    31.8   310.8   31.89
   312.2   31.99   314.8   32.08   315.7   32.13   318.6   32.34   319.3   32.36
   321.1   32.45   322.3   32.55   322.9   32.64   323.6   32.82   324.3   32.85
   324.9   32.86   325.7    32.8   326.4   32.77   328.7   32.79   332.1   32.88
     335   33.02   337.1   33.16   339.3   33.36   340.1   33.42   340.7   33.46
   342.6   33.52   343.1   33.55   344.8   33.78   346.4   33.95   347.1      34
   347.8   34.08   349.6   34.34
#Mann= 3 ,0,0
       0    .035       0    76.5    .035       0   205.8    .035       0
Ice Thickness=0.74,0.74,0.74
Ice Mann=0.04,0.04,0.04
Ice Specific Gravity=0.916
Ice Is Channel=0
Ice Is OB=0
Ice Friction Angle=55.0
Ice Porosity=0
Ice K1=0.33
Ice Max Mean Vel=1.524
Ice Cohesion=0
Ice Fixed Mann=-1 
Bank Sta=76.5,205.8
XS Rating Curve= 0 ,0
XS HTab Starting El and Incr=23.03,0.1, 100 
XS HTab Horizontal Distribution= 5 , 5 , 5 
Exp/Cntr(USF)=0,0
Exp/Cntr=0.3,0.1

Type RM Length L Ch R = 1 ,9869    ,172,172,172
XS GIS Cut Line=3
282024.004349587 5020032.1831297 282114.680048245019850.07687689
282142.9301303955019792.27853635
Node Last Edited Time=Sep/05/2024 12:44:39
#Sta/Elev= 149 
       0   37.48     3.9   37.46     6.3   37.48     8.6    37.4     9.1   37.35
     9.8   37.26    10.1   37.25    10.6   37.25    11.3    37.4    11.9   37.49
    13.6   37.54    15.3   37.52    16.4    37.5    17.5   37.44    19.5   37.26
    19.8   37.25      21   37.29      22   37.27    23.3   37.31    25.3   37.31
    28.5   37.22      30   37.26    33.2   37.22    36.5    37.1    37.6   37.11
    39.9   37.18    41.2   37.12    44.3   36.81    45.4   36.67    46.4   36.57
    47.7   36.41    48.8   36.25    49.9   35.96      51   35.58    52.2   35.11
    53.734.41455    54.4   34.09    55.5   33.63    56.6    33.1    57.6    32.6
    58.9   31.87      60   31.34    61.1   30.97    61.7   30.86    63.3   30.63
    63.5   30.61    64.4   30.55    66.7   30.44    67.8   30.35    68.9    30.3
      70   30.29      71    30.2    72.3   30.13    72.5   30.09    73.2   29.84
    73.4   29.76    74.5   28.95    74.7   28.76    75.1   28.43    75.6   28.12
    76.9   27.44    77.4   27.12    77.8   26.82    78.4   26.48      79   26.18
    79.9   25.83    81.4   25.33    82.3   25.05    82.9   24.95    85.7    24.5
    87.4   24.39    88.9   24.34    93.5   24.32    99.1   24.24   102.4   24.25
   104.3    24.3   107.5   24.33   110.2   24.38   114.7   24.51     118   24.62
   122.5   24.82   132.6    25.4   135.7   25.72   139.3   26.11   142.6   26.21
     146   26.25   149.3   26.34   152.7   26.56   160.4    27.2   166.1    27.6
   168.3   28.14   169.4   28.48   170.9   29.08   172.4   29.77   172.8   29.97
   173.2   30.09   173.9   30.31   176.1   30.26   179.5   30.27   181.7   30.36
   181.930.37455   182.8   30.44   185.1   30.51   186.6   30.53   187.3   30.51
   188.4   30.55   189.6    30.7     197   30.71   198.5   30.73   205.3   31.05
   207.5   31.12     209   31.21   210.8   31.27     213   31.27   216.4   31.25
   218.5   31.18   221.7   31.23   223.5   31.29   224.1   31.29   225.2   31.26
   227.4   31.24   230.3   31.28   230.8    31.3   232.6   31.44   234.1   31.46
   236.4   31.64   237.2   31.63   238.1    31.6   238.9   31.59   239.7    31.6
   240.8   31.65     243   31.79     244   31.87   245.3   32.04   246.4   32.13
   248.6   32.37   249.3   32.43   250.8   32.46   252.3   32.61   253.8    32.7
   254.2   32.73   256.8   32.84   257.7    32.9   259.5   33.11     262   33.35
   264.2   33.65     265   33.79   266.4    34.1   267.8   34.36
#Mann= 3 ,0,0
       0    .035       0    53.7    .035       0   181.9    .035       0
Ice Thickness=0.74,0.74,0.74
Ice Mann=0.04,0.04,0.04
Ice Specific Gravity=0.916
Ice Is Channel=0
Ice Is OB=0
Ice Friction Angle=55.0
Ice Porosity=0
Ice K1=0.33
Ice Max Mean Vel=1.524
Ice Cohesion=0
Ice Fixed Mann=-1 
Bank Sta=53.7,181.9
XS Rating Curve= 0 ,0
XS HTab Starting El and Incr=24.24,0.1, 100 
XS HTab Horizontal Distribution= 5 , 5 , 5 
Exp/Cntr(USF)=0,0
Exp/Cntr=0.3,0.1

Type RM Length L Ch R = 1 ,9697    ,171.8,171.8,171.8
XS GIS Cut Line=2
282221.6164892215020064.05605545282275.8004629915019853.69474552
Node Last Edited Time=Sep/05/2024 12:44:39
#Sta/Elev= 116 
       0   37.45     1.6   37.48     3.7   37.42     4.5   37.44     5.7   37.43
     6.8   37.46     7.9   37.44     8.6   37.41     9.9   37.39    10.9   37.39
      13   37.43      15   37.38    17.1   37.36    18.1   37.33    21.2   37.35
    23.3   37.26    25.4   37.21    30.5   37.03    31.6   36.95    32.6    36.9
    33.6    36.8    34.7   36.67    35.7   36.63    36.7   36.54    36.936.53286
    38.1   36.49    40.8   36.28    41.9   36.15    43.9   35.84      45   35.53
    46.3   34.93      47   34.58    48.1   34.11    50.1   33.42    51.2   33.04
    52.1   32.46    53.2   31.68    54.3   31.39    55.3   31.37    56.3   31.29
    57.4   31.25    58.4   30.85    59.4   30.17    60.3   29.49    61.5   28.74
    62.5    28.3    63.6   27.97    64.6   27.75    65.2   27.58    66.9    27.1
    68.7   26.54    71.8   25.37    74.9   24.51      78   24.19    81.1   24.15
    84.2   24.15    87.3   24.26    90.4   24.43    91.5   24.48   115.2   25.25
   127.6   25.81   138.9   26.12   143.1   26.28   146.2   26.46   148.2    26.6
   151.3   26.83   155.5   27.17   158.6   27.39   161.7   27.59   162.9   27.81
   164.8   28.15   165.8   28.56   166.8   29.01   167.9   29.38   168.9    29.9
   169.9    30.3   172.8   31.29   174.1   31.64   175.9   32.26     17632.29913
   178.2   33.16     179   33.39   179.2   33.46   181.3   33.93   182.3   34.03
   184.4   34.35   185.9   34.52   186.8   34.63     188   34.84   188.5   34.97
   189.5   35.38     190    35.6   190.6   35.81   190.9   35.91   191.7   36.13
   192.6   36.45   193.7   36.47   194.1   36.45   194.7   36.39   195.8   36.38
   196.8   36.35   198.3   36.54   198.8   36.63   199.8   36.71   201.5   36.82
   202.4   36.86   203.2   36.87     204   36.86   206.1   36.67   206.5   36.66
   208.1   36.67   209.2   36.69   211.2   36.66     213   36.67   214.7   36.71
   217.2   36.72
#Mann= 3 ,0,0
       0    .035       0    36.9    .035       0     176    .035       0
Ice Thickness=0.74,0.74,0.74
Ice Mann=0.04,0.04,0.04
Ice Specific Gravity=0.916
Ice Is Channel=0
Ice Is OB=0
Ice Friction Angle=55.0
Ice Porosity=0
Ice K1=0.33
Ice Max Mean Vel=1.524
Ice Cohesion=0
Ice Fixed Mann=-1 
Bank Sta=36.9,176
XS Rating Curve= 0 ,0
XS HTab Starting El and Incr=24.15,0.1, 100 
XS HTab Horizontal Distribution= 5 , 5 , 5 
Exp/Cntr(USF)=0,0
Exp/Cntr=0.3,0.1

Type RM Length L Ch R = 1 ,9525    ,125.4,125.4,125.4
XS GIS Cut Line=2
282396.9175808315020089.55439605282438.3523843035019895.12954899
Node Last Edited Time=Sep/05/2024 12:43:00
#Sta/Elev= 96 
       0   37.31     1.1   37.28     3.1   37.27     5.2   37.32     7.3   37.32
     8.1   37.26     9.3   37.15    10.3   37.08    11.5   36.96    13.3   36.87
    14.4   36.79    16.4    36.7    17.4   36.62    20.5   36.46    20.8   36.43
    21.5   36.29    22.5   35.99    23.6   35.83    23.835.81775    26.7   35.64
    27.5   35.48    27.7   35.44    29.7   34.58    30.7   34.31    31.8   34.08
    33.8   33.56    35.8   32.93    36.8   32.75    38.9    32.3    39.9   32.04
      41   31.88      42   31.69      43   31.45      44   31.01    44.4   30.82
      45   30.43    47.1   29.09    48.1   28.77    49.1   28.31    50.2   27.97
    51.2   27.67    57.3    26.2    60.4   25.72    63.4   25.64    72.7   25.64
    75.7   25.61    79.8   25.59    99.2   25.69   103.3   25.69   111.5   25.61
   113.5   25.61   118.7   25.66     127   25.62   137.1   25.61   140.1   25.64
   143.2   25.89   149.3    27.1   152.4   27.45   153.4    27.7   154.4   27.82
   155.5   28.11   156.5   28.63   157.3    29.1   157.5   29.25   158.5   30.08
   159.6   30.88   159.8   31.07   160.6   31.55   160.7   31.58   162.6   32.06
   163.2  32.174   163.6   32.25   164.7   32.42   167.7   32.66   168.8   32.76
   170.8   32.99   171.8   33.15   172.9   33.35   173.9   33.49   176.7   33.66
     178   33.69     179   33.74     180   33.88     181   34.07   182.1    34.2
   184.3   34.38   187.2   34.55   188.2   34.68   189.2   34.74   190.2   34.88
     191   34.93   194.3   35.18   196.4   35.29   197.4   35.39   198.4   35.55
   198.8   35.59
#Mann= 3 ,0,0
       0    .035       0    23.8    .035       0   163.2    .035       0
Ice Thickness=0.74,0.74,0.74
Ice Mann=0.04,0.04,0.04
Ice Specific Gravity=0.916
Ice Is Channel=0
Ice Is OB=0
Ice Friction Angle=55.0
Ice Porosity=0
Ice K1=0.33
Ice Max Mean Vel=1.524
Ice Cohesion=0
Ice Fixed Mann=-1 
Bank Sta=23.8,163.2
XS Rating Curve= 0 ,0
XS HTab Starting El and Incr=25.59,0.1, 100 
XS HTab Horizontal Distribution= 5 , 5 , 5 
Exp/Cntr(USF)=0,0
Exp/Cntr=0.3,0.1

Type RM Length L Ch R = 1 ,9399    ,170.3,170.3,170.3
XS GIS Cut Line=3
282521.221991246 5020121.4273218282552.3864138825019952.31785723
282576.7149687065019909.95212458
Node Last Edited Time=Sep/05/2024 12:43:00
#Sta/Elev= 107 
       0   37.74       4   37.69     7.9   37.69     9.1   37.67    11.1   37.66
    13.1   37.61    17.2   37.55    19.9   37.47    21.3   37.46    23.3   37.35
    24.3   37.25    25.1   37.07    26.4   36.69    27.1  36.564    27.4   36.51
    28.4   36.29    30.2   35.81    31.4   35.45    32.5   35.17    33.5   34.93
    34.5   34.64    35.5   34.48    36.5    34.3    37.5   33.76    39.6   32.87
    40.7    32.6    41.4   32.47    42.6   31.99    43.7   31.67    44.8   31.17
    45.7   30.86    46.7   30.57    46.9   30.46    47.4   30.28    47.7   30.12
    48.7   29.48    49.8    28.8    50.8   28.44    51.8   28.19    52.8   27.97
    53.8    27.8    54.8   27.41    55.9   27.19    58.9   26.62      62   26.11
    63.7    25.9      65   25.75    68.1   25.61    71.1   25.56    76.2   25.57
    79.2   25.55    92.5   25.38    99.6   25.26   110.9   24.98   113.8   24.99
   122.9   25.29   141.3   25.95   144.3   26.17   147.4   26.63   150.4   27.12
   153.5   27.56   154.5   27.77   155.6   27.93   156.5   28.25   157.5   28.73
   158.2   29.06   158.6   29.29   159.6   29.95   160.6   30.65   161.6   31.31
   162.5   31.48   162.9   31.51   163.3   31.54   165.7    31.6   167.6   31.53
   168.7   31.52     172   31.61   174.2   31.63   177.5   31.71   178.7   31.72
   181.4   31.85   183.6      32   186.6   32.14     189   32.29   192.5   32.57
   194.6   32.81     196   32.98   198.3   33.21   199.7   33.33   201.2   33.41
   202.9   33.48   206.3   33.48   207.1   33.46   207.5   33.47   208.6   33.65
   209.8   33.88   210.7   34.09   212.3   34.36   213.7   34.51   214.4   34.64
   215.1   34.71   216.4   34.86   217.3   34.94   218.4   35.07   219.5   35.19
   220.4   35.31   220.8   35.35
#Mann= 3 ,0,0
       0    .035       0    27.1    .035       0   162.9    .035       0
Ice Thickness=0.74,0.74,0.74
Ice Mann=0.04,0.04,0.04
Ice Specific Gravity=0.916
Ice Is Channel=0
Ice Is OB=0
Ice Friction Angle=55.0
Ice Porosity=0
Ice K1=0.33
Ice Max Mean Vel=1.524
Ice Cohesion=0
Ice Fixed Mann=-1 
Bank Sta=27.1,162.9
XS Rating Curve= 0 ,0
XS HTab Starting El and Incr=24.98,0.1, 100 
XS HTab Horizontal Distribution= 5 , 5 , 5 
Exp/Cntr(USF)=0,0
Exp/Cntr=0.3,0.1

Type RM Length L Ch R = 1 ,9229    ,216.7,216.7,216.7
XS GIS Cut Line=3
282629.5899387865020172.42400299 282731.000174725020030.74366946
282801.2888219275019965.44941158
Node Last Edited Time=Sep/05/2024 12:43:00
#Sta/Elev= 144 
       0    36.8     1.3   36.84     3.3   36.93     5.6      37     7.3    37.1
     9.9   37.22    12.1   37.24    13.5   37.29    17.8   37.29    19.2   37.25
      22   37.13    23.9   36.98    25.6    36.9      27   36.73    28.2   36.55
    29.4    36.4    29.636.36667      30    36.3    30.7   36.15    31.9   35.92
    32.5   35.75    33.1   35.59    34.3    35.5      35   35.37    35.7   35.18
    36.8   34.78    37.2   34.62      38   34.15    39.3   33.35    40.5   32.69
    41.1   32.45    41.5   32.32    41.7   32.21    42.2   32.07    43.6   31.58
    44.5   31.22    45.4   30.91    46.2   30.66    47.2    30.5    47.9   30.37
    48.6   30.17    49.7   29.93    50.1    29.8    50.3   29.66    50.8   29.37
    51.6   28.97    52.8   28.22    52.9   28.16      54   27.83    56.5    26.9
    58.7   26.15    60.2   25.67    62.2   25.37    63.9   25.19    70.3    24.7
    71.6   24.63    73.7   24.57    74.9   24.55    77.2   24.56    80.6    24.6
    85.2   24.69    90.2   24.83    93.4   24.96    96.1   25.12    97.4   25.21
    98.8   25.37   100.2   25.56   103.2   25.99   104.4   26.13   105.2   26.19
   109.4    26.4   119.2   26.85   126.6   27.24   132.1    27.5   133.2   27.58
     134   27.65   135.3   27.84   136.1   27.88   136.4   27.95   137.3   28.23
   138.9   28.83   140.1    29.2   140.4   29.27   141.3   29.48   141.8   29.62
   142.6   29.79   143.8   30.14   144.7   30.43   145.4   30.64   145.9   30.76
   146.2   30.82   146.8   30.88   147.6   30.92   148.7   30.85   149.9   30.73
   150.4   30.71     151   30.72   153.6   31.04   154.7   31.13   155.531.22143
   156.1   31.29   157.6   31.41   158.5   31.47   159.7   31.52   162.2   31.66
   164.7   31.88   170.5   32.24   174.2   32.54     179   32.87   181.9   32.98
   184.9   33.07   187.5   33.09     194   33.25   195.4   33.32   196.6   33.34
   199.6   33.45   202.2   33.47   206.9   33.56   210.8    33.6   212.8   33.66
   214.5   33.68   222.7   33.92   224.5   33.95   227.1   34.04   231.4   34.16
   232.8   34.18   235.6   34.25   240.4    34.3   245.1   34.42   246.2   34.43
   248.1   34.41     251    34.8   253.3   34.87   255.4   34.89   256.9   34.87
   258.3   34.79     259   34.71   259.8   34.57   260.4   34.53   261.3    34.5
   262.7    34.6   264.6    34.7   266.4   34.76   270.2   34.85
#Mann= 3 ,0,0
       0    .035       0    29.6    .035       0   155.5    .035       0
Ice Thickness=0.74,0.74,0.74
Ice Mann=0.04,0.04,0.04
Ice Specific Gravity=0.916
Ice Is Channel=0
Ice Is OB=0
Ice Friction Angle=55.0
Ice Porosity=0
Ice K1=0.33
Ice Max Mean Vel=1.524
Ice Cohesion=0
Ice Fixed Mann=-1 
Bank Sta=29.6,155.5
XS Rating Curve= 0 ,0
XS HTab Starting El and Incr=24.55,0.1, 100 
XS HTab Horizontal Distribution= 5 , 5 , 5 
Exp/Cntr(USF)=0,0
Exp/Cntr=0.3,0.1

Type RM Length L Ch R = 1 ,9012    ,187.6,187.6,187.6
XS GIS Cut Line=3
282833.5766635695020303.10299856282897.7063515035020127.23616095
282944.0340803955020034.88694083
Node Last Edited Time=Sep/05/2024 12:43:00
#Sta/Elev= 117 
       0   38.53     4.9   38.52       6   38.48     7.4   38.37       9   38.29
    11.3   38.29    12.4   38.27    14.5   38.26    15.5   38.23    17.7   38.11
    22.3   38.02    26.2   37.85    28.3   37.88    31.5   37.72    32.6   37.63
    33.6   37.67    34.7   37.67    36.8   37.64    37.9    37.6    38.6   37.23
      39   37.08    39.2  36.945    39.4   36.81      40    36.4    40.2   36.33
    40.6   36.08    41.1   35.86    41.7   35.73    43.3   35.33    44.1   35.12
    45.6   34.67    46.4    34.5    48.5   34.08    48.8   34.01    49.6   33.64
    50.7   33.03    52.8   32.07    53.4   31.81    53.9   31.69      55   31.43
      56   31.17    57.1   30.83    58.1   30.46    59.2   29.99    60.5   29.33
    61.3   28.93    62.4   28.18    63.4   27.56    66.6   26.11    68.3   25.75
    69.8   25.42      73   25.19    76.2   25.16    92.2   25.43    97.5   25.47
   111.3   25.66   117.7   25.71   120.9   25.77   124.1   25.88   136.9   26.49
   143.3   26.84   149.7   27.27   152.9   27.42   154.5   27.53     156   27.65
   157.1   27.85   158.2   28.17   158.7   28.38   159.5   28.68   160.3   29.05
   161.1   29.59   161.9   30.08   163.5   31.07   164.2   31.28   164.6   31.35
   167.3   31.34   167.8   31.36   168.8   31.25   169.9   31.22     172   31.35
   174.331.43893   179.5   31.64   182.7   31.79   183.7   31.87   185.8   31.96
   190.3   32.07   191.4   32.08   192.1   32.12   195.7   32.24   199.2   32.38
   201.4    32.5   206.2   32.72   209.2   32.88   210.4   32.96   218.1   33.36
   222.4   33.51   226.1    33.6   229.4   33.63   231.7   33.67     233   33.71
   237.5   33.72   239.5   33.76   245.1   33.79   247.2   33.83   250.7   33.84
     254   33.91   264.8   34.17   268.6   34.23   270.8   34.26   275.3   34.28
   278.6   34.26   282.2   34.28   283.1   34.26   285.9   34.13   287.6   34.11
   288.9   34.11   290.5   34.06
#Mann= 3 ,0,0
       0    .035       0    39.2    .035       0   174.3    .035       0
Ice Thickness=0.74,0.74,0.74
Ice Mann=0.04,0.04,0.04
Ice Specific Gravity=0.916
Ice Is Channel=0
Ice Is OB=0
Ice Friction Angle=55.0
Ice Porosity=0
Ice K1=0.33
Ice Max Mean Vel=1.524
Ice Cohesion=0
Ice Fixed Mann=-1 
Bank Sta=39.2,174.3
XS Rating Curve= 0 ,0
XS HTab Starting El and Incr=25.16,0.1, 100 
XS HTab Horizontal Distribution= 5 , 5 , 5 
Exp/Cntr(USF)=0,0
Exp/Cntr=0.3,0.1

Type RM Length L Ch R = 1 ,8825    ,150.7,150.7,150.7
XS GIS Cut Line=3
 283008.877755185020350.91238718283083.7110265845020177.33013525
283129.4255878245020098.37655528
Node Last Edited Time=Sep/05/2024 12:43:00
#Sta/Elev= 164 
       0   37.63     1.5   37.28     3.1   37.16     3.7    37.1     4.1   37.08
     5.4   37.06     6.1   37.03       7   36.97     8.4   36.93     9.1   36.88
    11.3    36.8    11.7   36.81      13   36.95    13.5   36.98    14.2   36.93
    14.6   36.89    15.7   36.62      16   36.56    16.8    36.3    17.5   36.26
    17.9   36.17    18.3   36.21    18.7   36.12    19.3   36.06    19.8   36.08
    20.1   36.02    20.6   35.97    21.1   35.89    21.8   35.84    22.9   35.94
    23.3   35.94    24.3   36.21    24.4   36.24    25.5   36.83    25.9   36.93
    26.6   37.07    27.7   37.09    28.8   37.08    30.9   37.03    33.1   36.95
    33.436.91455    34.2   36.82    35.3   36.65    36.4   36.54    36.6   36.49
    37.5   36.14    39.5   35.51    40.7   35.06    41.1    34.9    42.6   34.35
    42.9   34.28    44.5   33.75    45.1   33.51    46.4   33.02    47.2    32.8
    48.4    32.5    49.5   32.17    50.2   31.89    50.5    31.8    51.6   31.61
    52.1   31.49    52.7   31.36    53.8    31.2    54.9      31    57.1   30.04
    60.3   28.12    61.4   27.61    62.5   27.01    64.7   25.96    66.2   25.54
      68   25.11    71.2   24.84    74.5   24.77    77.8   24.73    82.4   24.73
    94.1   24.66    97.4   24.63   101.2   24.54   103.9   24.54   110.4   24.79
   112.6   24.86   126.8   25.21     130   25.31   133.3   25.69   138.5    26.7
     140   26.97   141.6   27.17     143   27.34   146.4   27.64   147.6   27.81
   148.5   28.02   149.6   28.35   150.7   28.85   152.2   29.45   155.1   30.71
   156.130.93727   156.2   30.96   157.3   31.06   158.3   31.19   159.1   31.23
   160.7   31.27   162.9   31.35   165.9   31.42     169   31.61   170.3   31.64
   171.4   31.73   172.5   31.76   173.5   31.72   174.7   31.68   175.8   31.72
     179   31.67   180.4   31.68   181.2   31.71   183.4   31.66   184.5   31.71
   185.6   31.73   186.7   31.69   187.8   31.69     189   31.72   191.7   31.74
   192.6   31.72   194.6   31.73   196.9   31.82   198.1   31.82   199.2    31.8
   201.5   31.87   203.9   31.86   206.3   31.91     207   31.94   211.4   31.96
   214.4   31.96   215.1   31.98   216.5   31.96     218   31.98   220.5   31.98
   222.4   32.03   223.9   32.05   229.3   32.08   230.4   32.12   233.4   32.15
   236.5   32.25   237.4   32.26   239.7   32.36   242.9   32.38   244.3   32.41
   245.1   32.39   245.8   32.41   246.6   32.46   247.8   32.44   250.1   32.48
   253.5   32.59   255.9   32.65   258.5   32.74   263.9   33.08   265.1   33.19
   266.4   33.24   270.4   33.49   273.6   33.62   274.4   33.67   277.8   33.71
     279   33.69   280.1   33.72   280.2   33.72   280.3   33.72
#Mann= 3 ,0,0
       0    .035       0    33.4    .035       0   156.1    .035       0
Ice Thickness=0.74,0.74,0.74
Ice Mann=0.04,0.04,0.04
Ice Specific Gravity=0.916
Ice Is Channel=0
Ice Is OB=0
Ice Friction Angle=55.0
Ice Porosity=0
Ice K1=0.33
Ice Max Mean Vel=1.524
Ice Cohesion=0
Ice Fixed Mann=-1 
Bank Sta=33.4,156.1
XS Rating Curve= 0 ,0
XS HTab Starting El and Incr=24.54,0.1, 100 
XS HTab Horizontal Distribution= 5 , 5 , 5 
Exp/Cntr(USF)=0,0
Exp/Cntr=0.3,0.1

Type RM Length L Ch R = 1 ,8674    ,101.3,101.3,101.3
XS GIS Cut Line=3
 283184.17884679 5020411.4709461283201.9656544495020224.13925878
283213.9783672545020150.62542906
Node Last Edited Time=Sep/05/2024 12:43:00
#Sta/Elev= 114 
       0   38.24       1   38.32       2   38.36       4   38.41       6   38.43
       7   38.39       9   38.26      14   38.16    20.1      38    22.1      38
    25.1   37.86    26.2   37.76    27.1   37.63    29.737.14824    30.5      37
      34   36.52    37.1   36.23    38.1   36.16    39.1   36.01    40.2   35.84
    41.2   35.58    42.2    35.2    44.2    33.6    45.2   33.05    46.2   32.85
    47.2   32.43    48.2    32.1    49.2   31.81    50.2   31.65    51.2   31.48
    53.2   30.89    55.2   30.38    56.2   29.55    57.2   28.88    58.2   28.27
    59.2   28.09    60.2   27.67    63.3   27.39    75.3   27.19    78.3    27.2
    81.3   27.27    87.4   27.47    90.4   27.49    93.4   27.46    96.4    27.4
   102.4   27.36   108.5   27.25   111.5   27.24   117.7   27.16   120.5   27.15
   126.9   27.14   129.6   27.17   132.6   27.23   138.6   27.24   144.6    27.4
   147.6   27.43   150.6   27.37   153.7   27.41   155.7   27.64   156.7   27.73
   157.7      28   158.7   28.32     159   28.45   159.7    28.8   160.7   29.38
   161.7   29.57   162.7   29.62   163.7   29.86   164.7   30.13   166.7    30.6